powerfactory/powerfactory-converter/src/test/resources/CapabilityCurve.xiidm
<?xml version="1.0" encoding="UTF-8"?>
<iidm:network xmlns:iidm="http://www.powsybl.org/schema/iidm/1_18" id="CapabilityCurve" caseDate="2021-01-01T10:00:00.000+02:00" forecastDistance="0" sourceFormat="POWER-FACTORY" minimumValidationLevel="STEADY_STATE_HYPOTHESIS">
    <iidm:substation id="S10">
        <iidm:voltageLevel id="VL10" nominalV="400.0" topologyKind="NODE_BREAKER">
            <iidm:nodeBreakerTopology>
                <iidm:busbarSection id="VL10_1 Bus 1-Slack" node="0"/>
                <iidm:switch id="VL10_Switch" kind="BREAKER" open="false" node1="0" node2="1"/>
                <iidm:switch id="VL10_Switch#0" kind="BREAKER" open="false" node1="0" node2="2"/>
                <iidm:bus v="423.9999694824219" angle="0.0" nodes="0,1,2"/>
            </iidm:nodeBreakerTopology>
            <iidm:generator id="sym_1_1" energySource="OTHER" minP="0.0" maxP="50.470001220703125" targetP="50.470001220703125" localTargetV="423.9999771118164" localTargetQ="0.0" node="2">
                <iidm:reactiveCapabilityCurve>
                    <iidm:point p="0.0" minQ="-250.0" maxQ="353.273193359375"/>
                    <iidm:point p="81.0" minQ="-220.0" maxQ="347.785400390625"/>
                    <iidm:point p="162.0" minQ="-190.0" maxQ="331.0096130371094"/>
                    <iidm:point p="243.0" minQ="-160.0" maxQ="301.91241455078125"/>
                    <iidm:point p="324.0" minQ="-130.0" maxQ="258.3710021972656"/>
                    <iidm:point p="405.0" minQ="-100.0" maxQ="196.15049743652344"/>
                    <iidm:point p="450.0" minQ="-80.0" maxQ="0.0"/>
                </iidm:reactiveCapabilityCurve>
                <iidm:voltageRegulation mode="VOLTAGE" regulating="true"/>
            </iidm:generator>
        </iidm:voltageLevel>
    </iidm:substation>
    <iidm:substation id="S11">
        <iidm:voltageLevel id="VL11" nominalV="400.0" topologyKind="NODE_BREAKER">
            <iidm:nodeBreakerTopology>
                <iidm:busbarSection id="VL11_2 Bus 2" node="0"/>
                <iidm:switch id="VL11_Switch" kind="BREAKER" open="false" node1="0" node2="1"/>
                <iidm:switch id="VL11_Switch#0" kind="BREAKER" open="false" node1="0" node2="2"/>
                <iidm:bus v="418.62994384765625" angle="-1.461245059967041" nodes="0,1,2"/>
            </iidm:nodeBreakerTopology>
        </iidm:voltageLevel>
        <iidm:voltageLevel id="VL12" nominalV="20.0" topologyKind="NODE_BREAKER">
            <iidm:nodeBreakerTopology>
                <iidm:busbarSection id="VL12_3 Bus 2-Load" node="0"/>
                <iidm:switch id="VL12_Switch" kind="BREAKER" open="false" node1="0" node2="1"/>
                <iidm:switch id="VL12_Switch#0" kind="BREAKER" open="false" node1="0" node2="2"/>
                <iidm:bus v="20.805301666259766" angle="-2.0938339233398438" nodes="0,1,2"/>
            </iidm:nodeBreakerTopology>
            <iidm:load id="lod_3_1" loadType="UNDEFINED" p0="50.0" q0="25.0" node="1"/>
        </iidm:voltageLevel>
        <iidm:twoWindingsTransformer id="trf_2_3_1" r="0.0031199999227605408" x="0.09771995949237713" ratedU1="400.0" ratedU2="20.0" ratedS="29.760000228881836" node1="2" voltageLevelId1="VL11" node2="2" voltageLevelId2="VL12">
            <iidm:ratioTapChanger tapPosition="2" loadTapChangingCapabilities="false">
                <iidm:step rho="1.1111111111111112"/>
                <iidm:step rho="1.0526315789473684"/>
                <iidm:step rho="1.0"/>
                <iidm:step rho="0.9523809523809523"/>
                <iidm:step rho="0.9090909090909091"/>
            </iidm:ratioTapChanger>
        </iidm:twoWindingsTransformer>
    </iidm:substation>
    <iidm:line id="lne_1_2_1" r="31.007963180541992" x="94.67198181152344" b1="1.0815001583099366E-4" b2="1.0815001583099366E-4" node1="1" voltageLevelId1="VL10" node2="1" voltageLevelId2="VL11"/>
</iidm:network>
